REMARK  Name = ./MARS/estimator/scorer/adtgpu/autodockgpu/ligands/ligand1.pdb ligand1.pdb
REMARK                            x       y       z     vdW  Elec       q    Type
REMARK                         _______ _______ _______ _____ _____    ______ ____
ROOT
ATOM      1  C   LIG    1       -0.969   0.003   0.306  0.00  0.00    -0.024 A 
ATOM      2  C   LIG    1        0.363  -0.184  -0.154  0.00  0.00    -0.007 A 
ATOM      3  C   LIG    1        0.614  -1.169  -1.135  0.00  0.00    -0.003 A 
ATOM      4  C   LIG    1       -0.409  -1.974  -1.635  0.00  0.00    +0.010 A 
ATOM      5  C   LIG    1       -1.710  -1.808  -1.171  0.00  0.00    +0.068 A 
ATOM      6  C   LIG    1       -1.984  -0.828  -0.210  0.00  0.00    +0.006 A 
ENDROOT
BRANCH   2   7
ATOM      7  C   LIG    1        1.513   0.680   0.349  0.00  0.00    +0.156 C 
ATOM      8  C   LIG    1        2.831  -0.052   0.540  0.00  0.00    +0.263 C 
ATOM      9  O   LIG    1        2.995  -1.057   1.222  0.00  0.00    -0.272 OA
ATOM     10  N   LIG    1        3.849   0.546  -0.140  0.00  0.00    -0.134 NA
ATOM     11  C   LIG    1        3.577   1.629  -0.902  0.00  0.00    +0.299 C 
ATOM     12  O   LIG    1        4.390   2.243  -1.570  0.00  0.00    -0.261 OA
ATOM     13  S   LIG    1        1.886   2.038  -0.812  0.00  0.00    -0.042 S 
ENDBRANCH   2   7
BRANCH   1  15
ATOM     14  C   LIG    1       -2.752   1.312   1.686  0.00  0.00    +0.005 C 
ATOM     15  C   LIG    1       -1.285   1.067   1.345  0.00  0.00    +0.026 C 
ENDBRANCH   1  15
BRANCH   5  16
ATOM     16  C   LIG    1       -2.766  -2.635  -1.678  0.00  0.00    +0.100 C 
ATOM     17  N   LIG    1       -3.622  -3.303  -2.088  0.00  0.00    -0.191 NA
ENDBRANCH   5  16
TORSDOF 3
